Mineral: Halite
Rruff sample: R070292
Ideal chemistry: NaCl
Locality: Stassfurt, Stassfurt Deposit, Saxony-Anhalt, Germany
Source: Michael Scott
Description: Blue to colorless cube
Cell parameters: a: 5.64167(4) b: 5.64167(4) c: 5.64167(4) alpha: 90 beta: 90 gamma: 90 volume: 179.565(4) crystal system: cubic
x	intensity
5	26
5.22	17
5.44	21
5.66	21
5.88	23
6.1	22
6.32	20
6.54	29
6.76	31
6.98	26
7.2	28
7.42	35
7.64	9
7.86	22
8.08	20
8.3	11
8.52	15
8.74	14
8.96	17
9.18	19
9.4	12
9.62	20
9.84	21
10.06	15
10.28	15
10.5	14
10.72	9
10.94	5
11.16	13
11.38	13
11.6	13
11.82	7
12.04	9
12.26	9
12.48	10
12.7	10
12.92	11
13.14	11
13.36	11
13.58	8
13.8	14
14.02	12
14.24	5
14.46	16
14.68	10
14.9	10
15.12	15
15.34	7
15.56	13
15.78	13
16	8
16.22	8
16.44	6
16.66	13
16.88	6
17.1	13
17.32	12
17.54	4
17.76	14
17.98	10
18.2	13
18.42	12
18.64	12
18.86	6
19.08	10
19.3	11
19.52	8
19.74	12
19.96	10
20.18	13
20.4	11
20.62	15
20.84	12
21.06	14
21.28	6
21.5	11
21.72	14
21.94	5
22.16	7
22.38	11
22.6	8
22.82	18
23.04	9
23.26	9
23.48	10
23.7	10
23.92	13
24.14	13
24.36	15
24.58	10
24.8	11
25.02	6
25.24	10
25.46	11
25.68	12
25.9	5
26.12	7
26.34	9
26.56	12
26.78	16
27	5
27.22	9
27.44	183
27.66	13
27.88	8
28.1	9
28.32	16
28.54	16
28.76	12
28.98	12
29.2	14
29.42	8
29.64	12
29.86	3
30.08	12
30.3	10
30.52	12
30.74	18
30.96	10
31.18	28
31.4	18
31.62	142
31.84	900
32.06	25
32.28	22
32.5	20
32.72	16
32.94	23
33.16	17
33.38	13
33.6	11
33.82	12
34.04	18
34.26	18
34.48	12
34.7	19
34.92	7
35.14	14
35.36	9
35.58	8
35.8	19
36.02	13
36.24	7
36.46	12
36.68	6
36.9	6
37.12	13
37.34	8
37.56	13
37.78	11
38	8
38.22	12
38.44	16
38.66	10
38.88	9
39.1	6
39.32	9
39.54	10
39.76	16
39.98	15
40.2	9
40.42	13
40.64	13
40.86	33
41.08	15
41.3	6
41.52	21
41.74	9
41.96	12
42.18	8
42.4	10
42.62	8
42.84	15
43.06	10
43.28	16
43.5	18
43.72	18
43.94	12
44.16	10
44.38	8
44.6	14
44.82	13
45.04	16
45.26	42
45.48	1085
45.7	74
45.92	23
46.14	20
46.36	10
46.58	11
46.8	13
47.02	16
47.24	13
47.46	16
47.68	10
47.9	15
48.12	8
48.34	13
48.56	10
48.78	9
49	8
49.22	11
49.44	7
49.66	13
49.88	11
50.1	20
50.32	9
50.54	10
50.76	14
50.98	14
51.2	14
51.42	10
51.64	12
51.86	6
52.08	11
52.3	7
52.52	11
52.74	10
52.96	11
53.18	10
53.4	14
53.62	5
53.84	26
54.06	18
54.28	14
54.5	12
54.72	15
54.94	13
55.16	12
55.38	10
55.6	9
55.82	12
56.04	17
56.26	18
56.48	264
56.7	75
56.92	12
57.14	11
57.36	13
57.58	11
57.8	11
58.02	7
58.24	1
58.46	11
58.68	10
58.9	9
59.12	9
59.34	14
59.56	8
59.78	10
60	8
60.22	5
60.44	9
60.66	8
60.88	7
61.1	11
61.32	8
61.54	7
61.76	9
61.98	13
62.2	6
62.42	11
62.64	4
62.86	9
63.08	9
63.3	7
63.52	9
63.74	15
63.96	9
64.18	8
64.4	12
64.62	11
64.84	9
65.06	6
65.28	13
65.5	13
65.72	6
65.94	14
66.16	43
66.38	50
66.6	12
66.82	9
67.04	12
67.26	12
67.48	9
67.7	10
67.92	8
68.14	10
68.36	7
68.58	3
68.8	9
69.02	8
69.24	10
69.46	12
69.68	6
69.9	8
70.12	7
70.34	5
70.56	9
70.78	12
71	9
71.22	7
71.44	15
71.66	7
71.88	12
72.1	9
72.32	9
72.54	9
72.76	8
72.98	13
73.2	14
73.42	17
73.64	10
73.86	8
74.08	10
74.3	9
74.52	8
74.74	22
74.96	16
75.18	34
75.4	90
75.62	52
75.84	12
76.06	11
76.28	7
76.5	7
76.72	4
76.94	12
77.16	10
77.38	6
77.6	6
77.82	10
78.04	7
78.26	11
78.48	17
78.7	9
78.92	16
79.14	15
79.36	9
79.58	11
79.8	5
80.02	4
80.24	14
80.46	11
80.68	7
80.9	5
81.12	8
81.34	12
81.56	11
81.78	10
82	15
82.22	10
82.44	20
82.66	13
82.88	7
83.1	15
83.32	8
83.54	14
83.76	11
83.98	101
84.2	51
84.42	17
84.64	13
84.86	9
85.08	6
85.3	12
85.52	11
85.74	5
85.96	10
86.18	9
86.4	16
86.62	10
86.84	8
87.06	6
87.28	9
87.5	7
87.72	9
87.94	7
88.16	7
88.38	7
88.6	7
88.82	20
89.04	10
89.26	6
89.48	12
89.7	14
89.92	11
